180

     D     0.000000     0.000000     0.000000
     D     0.000000     0.000000     3.285365
     D     0.000000     0.000000     6.570730
     D     0.000000     0.000000     9.856095
     D     0.000000     0.000000    13.141460
     D     0.000000     0.000000    16.426825
     D     0.000000     3.285365     0.000000
     D     0.000000     3.285365     3.285365
     D     0.000000     3.285365     6.570730
     D     0.000000     3.285365     9.856095
     D     0.000000     3.285365    13.141460
     D     0.000000     3.285365    16.426825
     D     0.000000     6.570730     0.000000
     D     0.000000     6.570730     3.285365
     D     0.000000     6.570730     6.570730
     D     0.000000     6.570730     9.856095
     D     0.000000     6.570730    13.141460
     D     0.000000     6.570730    16.426825
     D     0.000000     9.856095     0.000000
     D     0.000000     9.856095     3.285365
     D     0.000000     9.856095     6.570730
     D     0.000000     9.856095     9.856095
     D     0.000000     9.856095    13.141460
     D     0.000000     9.856095    16.426825
     D     0.000000    13.141460     0.000000
     D     0.000000    13.141460     3.285365
     D     0.000000    13.141460     6.570730
     D     0.000000    13.141460     9.856095
     D     0.000000    13.141460    13.141460
     D     0.000000    13.141460    16.426825
     D     0.000000    16.426825     0.000000
     D     0.000000    16.426825     3.285365
     D     0.000000    16.426825     6.570730
     D     0.000000    16.426825     9.856095
     D     0.000000    16.426825    13.141460
     D     0.000000    16.426825    16.426825
     D     3.942438     0.000000     0.000000
     D     3.942438     0.000000     3.285365
     D     3.942438     0.000000     6.570730
     D     3.942438     0.000000     9.856095
     D     3.942438     0.000000    13.141460
     D     3.942438     0.000000    16.426825
     D     3.942438     3.285365     0.000000
     D     3.942438     3.285365     3.285365
     D     3.942438     3.285365     6.570730
     D     3.942438     3.285365     9.856095
     D     3.942438     3.285365    13.141460
     D     3.942438     3.285365    16.426825
     D     3.942438     6.570730     0.000000
     D     3.942438     6.570730     3.285365
     D     3.942438     6.570730     6.570730
     D     3.942438     6.570730     9.856095
     D     3.942438     6.570730    13.141460
     D     3.942438     6.570730    16.426825
     D     3.942438     9.856095     0.000000
     D     3.942438     9.856095     3.285365
     D     3.942438     9.856095     6.570730
     D     3.942438     9.856095     9.856095
     D     3.942438     9.856095    13.141460
     D     3.942438     9.856095    16.426825
     D     3.942438    13.141460     0.000000
     D     3.942438    13.141460     3.285365
     D     3.942438    13.141460     6.570730
     D     3.942438    13.141460     9.856095
     D     3.942438    13.141460    13.141460
     D     3.942438    13.141460    16.426825
     D     3.942438    16.426825     0.000000
     D     3.942438    16.426825     3.285365
     D     3.942438    16.426825     6.570730
     D     3.942438    16.426825     9.856095
     D     3.942438    16.426825    13.141460
     D     3.942438    16.426825    16.426825
     D     7.884876     0.000000     0.000000
     D     7.884876     0.000000     3.285365
     D     7.884876     0.000000     6.570730
     D     7.884876     0.000000     9.856095
     D     7.884876     0.000000    13.141460
     D     7.884876     0.000000    16.426825
     D     7.884876     3.285365     0.000000
     D     7.884876     3.285365     3.285365
     D     7.884876     3.285365     6.570730
     D     7.884876     3.285365     9.856095
     D     7.884876     3.285365    13.141460
     D     7.884876     3.285365    16.426825
     D     7.884876     6.570730     0.000000
     D     7.884876     6.570730     3.285365
     D     7.884876     6.570730     6.570730
     D     7.884876     6.570730     9.856095
     D     7.884876     6.570730    13.141460
     D     7.884876     6.570730    16.426825
     D     7.884876     9.856095     0.000000
     D     7.884876     9.856095     3.285365
     D     7.884876     9.856095     6.570730
     D     7.884876     9.856095     9.856095
     D     7.884876     9.856095    13.141460
     D     7.884876     9.856095    16.426825
     D     7.884876    13.141460     0.000000
     D     7.884876    13.141460     3.285365
     D     7.884876    13.141460     6.570730
     D     7.884876    13.141460     9.856095
     D     7.884876    13.141460    13.141460
     D     7.884876    13.141460    16.426825
     D     7.884876    16.426825     0.000000
     D     7.884876    16.426825     3.285365
     D     7.884876    16.426825     6.570730
     D     7.884876    16.426825     9.856095
     D     7.884876    16.426825    13.141460
     D     7.884876    16.426825    16.426825
     D    11.827314     0.000000     0.000000
     D    11.827314     0.000000     3.285365
     D    11.827314     0.000000     6.570730
     D    11.827314     0.000000     9.856095
     D    11.827314     0.000000    13.141460
     D    11.827314     0.000000    16.426825
     D    11.827314     3.285365     0.000000
     D    11.827314     3.285365     3.285365
     D    11.827314     3.285365     6.570730
     D    11.827314     3.285365     9.856095
     D    11.827314     3.285365    13.141460
     D    11.827314     3.285365    16.426825
     D    11.827314     6.570730     0.000000
     D    11.827314     6.570730     3.285365
     D    11.827314     6.570730     6.570730
     D    11.827314     6.570730     9.856095
     D    11.827314     6.570730    13.141460
     D    11.827314     6.570730    16.426825
     D    11.827314     9.856095     0.000000
     D    11.827314     9.856095     3.285365
     D    11.827314     9.856095     6.570730
     D    11.827314     9.856095     9.856095
     D    11.827314     9.856095    13.141460
     D    11.827314     9.856095    16.426825
     D    11.827314    13.141460     0.000000
     D    11.827314    13.141460     3.285365
     D    11.827314    13.141460     6.570730
     D    11.827314    13.141460     9.856095
     D    11.827314    13.141460    13.141460
     D    11.827314    13.141460    16.426825
     D    11.827314    16.426825     0.000000
     D    11.827314    16.426825     3.285365
     D    11.827314    16.426825     6.570730
     D    11.827314    16.426825     9.856095
     D    11.827314    16.426825    13.141460
     D    11.827314    16.426825    16.426825
     D    15.769752     0.000000     0.000000
     D    15.769752     0.000000     3.285365
     D    15.769752     0.000000     6.570730
     D    15.769752     0.000000     9.856095
     D    15.769752     0.000000    13.141460
     D    15.769752     0.000000    16.426825
     D    15.769752     3.285365     0.000000
     D    15.769752     3.285365     3.285365
     D    15.769752     3.285365     6.570730
     D    15.769752     3.285365     9.856095
     D    15.769752     3.285365    13.141460
     D    15.769752     3.285365    16.426825
     D    15.769752     6.570730     0.000000
     D    15.769752     6.570730     3.285365
     D    15.769752     6.570730     6.570730
     D    15.769752     6.570730     9.856095
     D    15.769752     6.570730    13.141460
     D    15.769752     6.570730    16.426825
     D    15.769752     9.856095     0.000000
     D    15.769752     9.856095     3.285365
     D    15.769752     9.856095     6.570730
     D    15.769752     9.856095     9.856095
     D    15.769752     9.856095    13.141460
     D    15.769752     9.856095    16.426825
     D    15.769752    13.141460     0.000000
     D    15.769752    13.141460     3.285365
     D    15.769752    13.141460     6.570730
     D    15.769752    13.141460     9.856095
     D    15.769752    13.141460    13.141460
     D    15.769752    13.141460    16.426825
     D    15.769752    16.426825     0.000000
     D    15.769752    16.426825     3.285365
     D    15.769752    16.426825     6.570730
     D    15.769752    16.426825     9.856095
     D    15.769752    16.426825    13.141460
     D    15.769752    16.426825    16.426825
